8500-Node/IEEE8500_Curr_Elem.Txt

CIRCUIT ELEMENT CURRENTS

(Currents into element from indicated bus)

Power Delivery Elements

  Bus                Phase    Magnitude, A     Angle      (Real)   +j  (Imag)

ELEMENT = "Vsource.SOURCE"
SOURCEBUS                1           59.693 /_  170.9 =    -58.942 +j    9.4394
SOURCEBUS                2           54.444 /_   53.0 =     32.768 +j    43.479
SOURCEBUS                3           59.037 /_  -63.7 =     26.174 +j   -52.918
------------
SOURCEBUS                0           59.693 /_   -9.1 =     58.942 +j   -9.4394
SOURCEBUS                0           54.444 /_ -127.0 =    -32.768 +j   -43.479
SOURCEBUS                0           59.037 /_  116.3 =    -26.174 +j    52.918

ELEMENT = "Line.HVMV_SUB_CONNECTOR"
_HVMV_SUB_LSB            1           550.82 /_  -38.0 =     434.08 +j   -339.09
_HVMV_SUB_LSB            2           531.02 /_ -159.0 =    -495.79 +j   -190.18
_HVMV_SUB_LSB            3           499.27 /_   87.6 =     21.284 +j    498.82
------------
HVMV_SUB_48332           1           550.82 /_  142.0 =    -434.08 +j    339.09
HVMV_SUB_48332           2           531.02 /_   21.0 =     495.79 +j    190.18
HVMV_SUB_48332           3           499.27 /_  -92.4 =    -21.284 +j   -498.82

ELEMENT = "Line.LN5502549-1"
M1009763                 2           1.9644 /_  178.0 =    -1.9632 +j   0.06873
------------
L2673322                 2           1.9645 /_   -2.0 =     1.9633 +j -0.069274

ELEMENT = "Line.LN6259988-1"
M1069148                 3           1.4402 /_   65.6 =    0.59587 +j    1.3112
------------
L2673309                 3           1.4407 /_ -114.5 =   -0.59774 +j   -1.3108

ELEMENT = "Line.LN6077796-1"
M1069588                 2           1.6838 /_  179.8 =    -1.6837 +j 0.0060388
------------
L2804270                 2           1.6838 /_   -0.2 =     1.6838 +j -0.0062307

ELEMENT = "Line.LN5835135-2"
M3036164                 2           16.614 /_  178.3 =    -16.607 +j   0.49306
------------
L2935553                 2           16.615 /_   -1.7 =     16.607 +j  -0.49385

ELEMENT = "Line.LN5896826-1"
M1209749                 2          0.82865 /_ -171.2 =   -0.81889 +j  -0.12679
------------
L2748840                 2           0.8296 /_    8.6 =    0.82036 +j   0.12342

ELEMENT = "Line.LN5714038-1"
M1108264                 2           2.1925 /_ -175.0 =    -2.1841 +j  -0.19184
------------
M1108263                 2            2.193 /_    5.0 =     2.1847 +j   0.19017

ELEMENT = "Line.LN5653457-1"
L3085398                 1           20.072 /_  -59.7 =     10.133 +j   -17.326
L3085398                 2           42.142 /_  178.0 =    -42.118 +j    1.4398
L3085398                 3            15.86 /_   64.8 =     6.7524 +j    14.351
------------
M1026891                 1           20.072 /_  120.3 =    -10.132 +j    17.328
M1026891                 2           42.143 /_   -2.0 =     42.118 +j    -1.442
M1026891                 3            15.86 /_ -115.2 =    -6.7547 +j    -14.35

ELEMENT = "Line.LN5835173-1"
L3216367                 1           28.586 /_  -59.0 =     14.702 +j   -24.516
L3216367                 2           63.514 /_  178.2 =    -63.483 +j    1.9859
L3216367                 3           47.846 /_   64.2 =     20.798 +j    43.089
------------
M1069468                 1           28.587 /_  120.9 =    -14.701 +j    24.517
M1069468                 2           63.515 /_   -1.8 =     63.484 +j   -1.9871
M1069468                 3           47.846 /_ -115.8 =    -20.799 +j   -43.089

ELEMENT = "Line.LN6321415-1"
M1142800                 2            1.416 /_ -173.5 =     -1.407 +j  -0.15968
------------
M1142799                 2           1.4165 /_    6.4 =     1.4076 +j   0.15815

ELEMENT = "Line.LN5565092-1"
M1047592                 3           2.1546 /_   64.7 =    0.91993 +j    1.9484
------------
P827512                  3           2.1546 /_ -115.3 =   -0.91999 +j   -1.9483

ELEMENT = "Line.LN6073648-1"
M1047339                 1           3.0708 /_  -55.6 =      1.733 +j   -2.5351
------------
P895104                  1           3.0709 /_  124.4 =    -1.7329 +j    2.5352

ELEMENT = "Line.LN5774457-1"
M1026915                 1           30.135 /_  -59.8 =     15.168 +j    -26.04
M1026915                 2           24.055 /_  178.2 =    -24.043 +j   0.73535
M1026915                 3           22.812 /_   64.8 =     9.7297 +j    20.633
------------
M1026920                 1           30.136 /_  120.2 =    -15.168 +j     26.04
M1026920                 2           24.055 /_   -1.8 =     24.044 +j  -0.73646
M1026920                 3           22.812 /_ -115.2 =    -9.7308 +j   -20.633

ELEMENT = "Line.LN5534966-3"
N1138596                 1           11.122 /_  -59.3 =     5.6855 +j   -9.5588
------------
L3254207                 1           11.122 /_  120.7 =    -5.6852 +j    9.5591

ELEMENT = "Line.LN5859996-1"
M1069464                 2           2.8091 /_  178.5 =     -2.808 +j  0.075479
------------
P873787                  2           2.8091 /_   -1.5 =     2.8081 +j -0.075587

ELEMENT = "Line.LN6138610-2"
N1144665                 1           119.32 /_  -59.3 =     60.907 +j    -102.6
N1144665                 2           91.054 /_  178.5 =    -91.021 +j    2.4459
N1144665                 3           103.47 /_   64.6 =     44.422 +j    93.453
------------
M1047515                 1           119.32 /_  120.7 =    -60.907 +j     102.6
M1047515                 2           91.054 /_   -1.5 =     91.021 +j   -2.4466
M1047515                 3           103.47 /_ -115.4 =    -44.422 +j   -93.453

ELEMENT = "Line.LN6258435-3"
N1137002                 1           2.5349 /_  -59.2 =     1.2967 +j   -2.1782
------------
M1047707                 1           2.5353 /_  120.7 =    -1.2955 +j    2.1794

ELEMENT = "Line.LN5804790-1"
L2729406                 3           1.4709 /_   66.5 =     0.5866 +j    1.3488
------------
L2897768                 3           1.4717 /_ -113.6 =   -0.58993 +j   -1.3483

ELEMENT = "Line.LN6900591-14"
L3649301                 1           4.5835 /_  -59.6 =     2.3197 +j   -3.9531
------------
L3649302                 1           4.5838 /_  120.4 =    -2.3189 +j    3.9539

ELEMENT = "Line.LN6409873-1"
L2970842                 2           10.556 /_ -175.0 =    -10.516 +j  -0.92538
------------
M1089113                 2           10.557 /_    5.0 =     10.516 +j   0.92417

ELEMENT = "Line.LN6014135-1"
M1047312                 1           9.6593 /_  -55.7 =     5.4461 +j   -7.9776
------------
P893163                  1           9.6593 /_  124.3 =     -5.446 +j    7.9776

ELEMENT = "Line.LN6077784-1"
L2822871                 1           58.037 /_  -59.7 =     29.263 +j    -50.12
L2822871                 2           69.683 /_  178.1 =    -69.646 +j     2.269
L2822871                 3           42.403 /_   64.8 =     18.056 +j    38.367
------------
M1026872                 1           58.038 /_  120.3 =    -29.262 +j    50.121
M1026872                 2           69.684 /_   -1.9 =     69.647 +j   -2.2708
M1026872                 3           42.404 /_ -115.2 =    -18.058 +j   -38.366

ELEMENT = "Line.LN5744338-1"
M1026312                 2           27.281 /_ -176.9 =    -27.241 +j   -1.4798
------------
L2973163                 2           27.281 /_    3.1 =     27.241 +j     1.479

ELEMENT = "Line.LN6991381-4"
L3728038                 1           5.1018 /_  -59.4 =     2.5964 +j   -4.3917
------------
L3728039                 1           5.1022 /_  120.6 =    -2.5954 +j    4.3927

ELEMENT = "Line.LN5774480-1"
M1069567                 2           31.842 /_  179.8 =    -31.842 +j   0.10312
------------
M1069582                 2           31.842 /_   -0.2 =     31.842 +j  -0.10569

ELEMENT = "Line.LN5986938-3"
N1140830                 1           5.4558 /_  -59.4 =     2.7748 +j   -4.6975
------------
L3216351                 1           5.4559 /_  120.6 =    -2.7747 +j    4.6976

ELEMENT = "Line.LN5894230-1"
L2952007                 3           1.4477 /_   69.9 =    0.49773 +j    1.3595
------------
L2861158                 3           1.4483 /_ -110.2 =   -0.49995 +j   -1.3593

ELEMENT = "Line.LN5683858-3"
N1140827                 1           2.6061 /_  -59.6 =       1.32 +j    -2.247
N1140827                 2           4.1732 /_  178.9 =    -4.1724 +j  0.080518
N1140827                 3           2.9359 /_   64.9 =     1.2451 +j    2.6588
------------
M1026726                 1           2.6062 /_  120.4 =    -1.3197 +j    2.2473
M1026726                 2           4.1733 /_   -1.1 =     4.1726 +j -0.080972
M1026726                 3            2.936 /_ -115.1 =    -1.2456 +j   -2.6587

ELEMENT = "Line.LN5920279-5"
L2730106                 1           349.47 /_  -49.4 =     227.24 +j   -265.51
L2730106                 2           325.71 /_ -171.1 =    -321.74 +j   -50.644
L2730106                 3           224.93 /_   79.4 =     41.381 +j     221.1
------------
N1142099                 1           349.47 /_  130.6 =    -227.24 +j    265.51
N1142099                 2           325.71 /_    8.9 =     321.74 +j    50.644
N1142099                 3           224.93 /_ -100.6 =    -41.381 +j    -221.1

ELEMENT = "Line.LN6439600-1"
M1026658                 1           1.2978 /_  -59.6 =    0.65699 +j   -1.1192
------------
L3172805                 1           1.2983 /_  120.3 =   -0.65567 +j    1.1206

ELEMENT = "Line.LN5589097-1"
P895112                  1           1.9658 /_  -53.7 =     1.1644 +j   -1.5839
------------
L3048962                 1           1.9659 /_  126.3 =    -1.1641 +j    1.5842

ELEMENT = "Line.LN5651975-1"
L2991914                 1           61.701 /_  -59.4 =     31.366 +j   -53.134
L2991914                 2           14.867 /_  179.2 =    -14.866 +j   0.20798
L2991914                 3           33.169 /_   65.0 =     14.006 +j    30.067
------------
M1047503                 1           61.702 /_  120.6 =    -31.365 +j    53.135
M1047503                 2           14.867 /_   -0.8 =     14.866 +j  -0.20892
M1047503                 3           33.169 /_ -115.0 =    -14.007 +j   -30.067

ELEMENT = "Line.LN5865236-1"
M1047751                 1           2.5471 /_  -59.0 =     1.3106 +j   -2.1841
------------
L2973154                 1           2.5472 /_  121.0 =    -1.3105 +j    2.1842

ELEMENT = "Line.LN5593232-1"
L3010565                 3           1.4407 /_   65.6 =    0.59559 +j    1.3118
------------
L2897775                 3           1.4413 /_ -114.5 =   -0.59811 +j   -1.3114

ELEMENT = "Line.LN5740283-1"
M1125955                 3           1.7147 /_   67.2 =    0.66486 +j    1.5806
------------
M1125957                 3           1.7147 /_ -112.8 =   -0.66498 +j   -1.5806

ELEMENT = "Line.LN6106559-1"
M1069640                 2           3.9437 /_  179.8 =    -3.9437 +j  0.014329
------------
L2804269                 2           3.9442 /_   -0.2 =     3.9441 +j -0.016021

ELEMENT = "Line.LN5714056-3"
M1026702                 1           51.845 /_  -59.5 =     26.326 +j   -44.664
M1026702                 2           11.408 /_  179.1 =    -11.407 +j   0.17325
M1026702                 3            25.36 /_   65.0 =     10.715 +j    22.986
------------
N1139551                 1           51.846 /_  120.5 =    -26.323 +j    44.667
N1139551                 2           11.409 /_   -0.9 =     11.408 +j  -0.17663
N1139551                 3           25.361 /_ -115.0 =    -10.718 +j   -22.985

ELEMENT = "Line.LN5985355-3"
N1136355                 2           55.554 /_  179.9 =    -55.554 +j   0.14246
------------
L2783231                 2           55.554 /_   -0.1 =     55.554 +j  -0.14368

ELEMENT = "Line.LN5531956-1"
L2748143                 1            1.289 /_  -58.0 =    0.68305 +j   -1.0932
------------
L3251854                 1           1.2893 /_  121.9 =   -0.68224 +j    1.0941

ELEMENT = "Line.LN5650048-1"
M1069610                 2           1.4078 /_  179.8 =    -1.4078 +j 0.0046825
------------
M1069600                 2           1.4081 /_   -0.2 =     1.4081 +j -0.0057312

ELEMENT = "Line.LN6290203-1"
M1069424                 1           21.965 /_  -59.0 =       11.3 +j   -18.836
M1069424                 2           54.799 /_  178.2 =     -54.77 +j    1.7639
M1069424                 3           39.133 /_   64.2 =     17.031 +j    35.233
------------
L2935549                 1           21.966 /_  121.0 =    -11.298 +j    18.838
L2935549                 2           54.799 /_   -1.8 =     54.771 +j   -1.7665
L2935549                 3           39.134 /_ -115.8 =    -17.033 +j   -35.232

ELEMENT = "Line.LN6134414-1"
P895089                  3           2.8459 /_   65.7 =     1.1693 +j    2.5945
------------
L3235242                 3           2.8462 /_ -114.3 =    -1.1704 +j   -2.5943

ELEMENT = "Line.LN6259998-2"
M1026795                 3            1.732 /_   64.8 =    0.73725 +j    1.5672
------------
N1140522                 3            1.732 /_ -115.2 =   -0.73749 +j   -1.5672

ELEMENT = "Line.LN6078767-1"
L3030199                 1           106.84 /_  -30.8 =     91.735 +j   -54.761
L3030199                 2            126.1 /_ -155.6 =    -114.87 +j   -52.026
L3030199                 3            155.3 /_   82.1 =     21.282 +j    153.84
------------
M1125934                 1           106.84 /_  149.2 =    -91.734 +j    54.762
M1125934                 2            126.1 /_   24.4 =     114.87 +j    52.025
M1125934                 3            155.3 /_  -97.9 =    -21.283 +j   -153.84

ELEMENT = "Line.LN6017300-1"
M1069189                 3          0.86014 /_   65.6 =    0.35584 +j   0.78309
------------
L2860487                 3          0.86054 /_ -114.5 =   -0.35736 +j  -0.78283

ELEMENT = "Line.LN8979257-2"
221-312488               1           1.3557 /_  -55.1 =    0.77637 +j   -1.1114
221-312488               2           1.4465 /_ -176.1 =    -1.4432 +j -0.098824
221-312488               3           1.4324 /_   67.1 =    0.55663 +j    1.3198
------------
M1089183                 1           1.3561 /_  124.9 =   -0.77527 +j    1.1126
M1089183                 2            1.447 /_    3.9 =     1.4437 +j  0.097164
M1089183                 3           1.4329 /_ -112.9 =   -0.55846 +j   -1.3196

ELEMENT = "Line.LN81048109-1"
M1108464                 2           4.3899 /_ -176.1 =    -4.3798 +j  -0.29777
------------
L3102286                 2           4.3918 /_    3.8 =     4.3822 +j   0.29074

ELEMENT = "Line.293471"
F739845                  1           1.2907 /_  -55.7 =    0.72719 +j   -1.0664
F739845                  2           1.4265 /_ -176.6 =     -1.424 +j -0.083685
F739845                  3           1.4426 /_   65.0 =    0.60972 +j    1.3074
------------
293471                   1           1.2909 /_  124.3 =   -0.72669 +j     1.067
293471                   2           1.4267 /_    3.3 =     1.4243 +j  0.082908
293471                   3           1.4427 /_ -115.0 =   -0.61052 +j   -1.3072

ELEMENT = "Line.LN5534965-2"
P827499                  1           1.2768 /_  -59.3 =    0.65155 +j    -1.098
------------
N1139254                 1           1.2768 /_  120.7 =   -0.65148 +j    1.0981

ELEMENT = "Line.LN5655683-1"
M1026657                 1            20.45 /_  -59.5 =     10.366 +j   -17.629
------------
M1026656                 1            20.45 /_  120.5 =    -10.366 +j    17.629

ELEMENT = "Line.LN5686247-1"
M1108299                 2           1.9912 /_ -174.2 =     -1.981 +j  -0.20178
------------
M1108300                 2           1.9913 /_    5.8 =      1.981 +j   0.20168

ELEMENT = "Line.LN6048642-1"
L3198355                 2        0.0018963 /_  -69.4 =  0.00066819 +j -0.0017746
------------
L2805037                 2       7.276E-012 /_  180.0 =  -7.276E-012 +j         0

ELEMENT = "Line.LN5928544-3"
N1137994                 3           14.525 /_   64.4 =     6.2649 +j    13.104
------------
M1069484                 3           14.525 /_ -115.6 =    -6.2658 +j   -13.104

ELEMENT = "Line.LN6108172-1"
L2860504                 1           2.5945 /_  -59.5 =     1.3152 +j   -2.2364
------------
L2860493                 1           2.5954 /_  120.4 =    -1.3126 +j     2.239

ELEMENT = "Line.LN5532754-1"
M1026783                 1           56.982 /_  -59.5 =     28.951 +j   -49.079
M1026783                 2           14.871 /_  179.1 =     -14.87 +j   0.22221
M1026783                 3           27.683 /_   65.0 =     11.682 +j    25.097
------------
M1026780                 1           56.982 /_  120.5 =    -28.951 +j     49.08
M1026780                 2           14.872 /_   -0.9 =      14.87 +j  -0.22268
M1026780                 3           27.683 /_ -115.0 =    -11.682 +j   -25.097

ELEMENT = "Line.LN5591834-1"
P895111                  3           3.7198 /_   67.5 =     1.4205 +j    3.4379
------------
L2895496                 3           3.7201 /_ -112.5 =    -1.4218 +j   -3.4377

ELEMENT = "Line.LN6347196-2"
N1140819                 1           28.029 /_  -59.5 =     14.239 +j   -24.144
N1140819                 2            10.58 /_  179.1 =    -10.579 +j   0.16358
N1140819                 3           25.362 /_   65.0 =     10.722 +j    22.984
------------
M1026700                 1            28.03 /_  120.5 =    -14.238 +j    24.144
M1026700                 2            10.58 /_   -0.9 =     10.579 +j  -0.16429
M1026700                 3           25.362 /_ -115.0 =    -10.723 +j   -22.984

ELEMENT = "Line.LN5532741-1"
M1089173                 3           8.9756 /_   66.5 =     3.5771 +j     8.232
------------
L2935551                 3           8.9759 /_ -113.5 =    -3.5781 +j   -8.2319

ELEMENT = "Line.LN5804803-1"
M1026344                 1          0.77619 /_  -55.3 =     0.4423 +j  -0.63784
------------
M1026364                 1          0.77751 /_  124.4 =   -0.43892 +j   0.64177

ELEMENT = "Line.LN6169248-1"
L2879070                 1           111.71 /_  -59.7 =     56.387 +j   -96.429
L2879070                 2           74.528 /_  178.2 =     -74.49 +j    2.3773
L2879070                 3           45.268 /_   64.8 =     19.252 +j     40.97
------------
L3216345                 1           111.71 /_  120.3 =    -56.385 +j    96.431
L3216345                 2           74.529 /_   -1.8 =     74.491 +j     -2.38
L3216345                 3           45.268 /_ -115.2 =    -19.255 +j   -40.969

ELEMENT = "Line.LN5532786-2"
M1069428                 2            2.254 /_  178.4 =    -2.2531 +j  0.063849
------------
N1139257                 2           2.2541 /_   -1.6 =     2.2531 +j -0.064134

ELEMENT = "Line.LN5744339-1"
L2991919                 1           16.527 /_  -55.6 =     9.3291 +j   -13.642
------------
M1026361                 1           16.527 /_  124.4 =    -9.3281 +j    13.643

ELEMENT = "Line.LN5531255-3"
N1147857                 1           16.984 /_  -59.8 =      8.548 +j   -14.676
------------
M1009742                 1           16.984 /_  120.2 =    -8.5473 +j    14.676

ELEMENT = "Line.LN5926308-2"
Q14412                   1           40.378 /_  -55.6 =     22.825 +j   -33.308
Q14412                   2            49.11 /_ -176.8 =    -49.032 +j   -2.7756
Q14412                   3           19.169 /_   65.2 =     8.0398 +j    17.402
------------
M1047325                 1           40.378 /_  124.4 =    -22.824 +j    33.309
M1047325                 2            49.11 /_    3.2 =     49.032 +j    2.7747
M1047325                 3           19.169 /_ -114.8 =    -8.0407 +j   -17.401

ELEMENT = "Line.LN5683856-3"
N1139263                 1           1.2748 /_  -59.4 =    0.64979 +j   -1.0968
------------
L3048227                 1           1.2749 /_  120.6 =   -0.64947 +j    1.0971

ELEMENT = "Line.LN6171502-1"
P827506                  1           2.0372 /_  -59.3 =      1.041 +j   -1.7511
------------
M1069469                 1           2.0372 /_  120.7 =    -1.0409 +j    1.7512

ELEMENT = "Line.LN5593228-1"
M1027019                 2           1.4029 /_  178.0 =     -1.402 +j  0.048198
------------
L2785522                 2           1.4031 /_   -2.0 =     1.4023 +j -0.049249

ELEMENT = "Line.LN6380800-1"
L3216338                 2           1.4145 /_  177.9 =    -1.4136 +j  0.051662
------------
L2973146                 2           1.4148 /_   -2.1 =     1.4138 +j -0.052674

ELEMENT = "Line.LN6199525-2"
M3037452                 1          0.51919 /_  -55.6 =    0.29328 +j  -0.42843
------------
L2973164                 1          0.51951 /_  124.3 =   -0.29248 +j   0.42935

ELEMENT = "Line.LN5772710-2"
L3120376                 1           10.229 /_  -59.7 =     5.1588 +j   -8.8324
------------
M1026925                 1           10.229 /_  120.3 =    -5.1577 +j    8.8335

ELEMENT = "Line.LN8961760-1"
M1047612                 3           5.0231 /_   65.0 =      2.124 +j    4.5519
------------
P828360                  3           5.0232 /_ -115.0 =    -2.1244 +j   -4.5518

ELEMENT = "Line.LN6047556-1"
M1089195                 3           1.4232 /_   65.7 =    0.58548 +j    1.2972
------------
L3141393                 3           1.4237 /_ -114.4 =   -0.58753 +j   -1.2968

ELEMENT = "Line.LN6138603-1"
M1026946                 2           2.2369 /_  178.2 =    -2.2357 +j  0.071313
------------
M1026940                 2           2.2374 /_   -1.9 =     2.2362 +j -0.073495

ELEMENT = "Line.LN6108139-1"
M1047471                 2          0.86176 /_  177.9 =   -0.86121 +j  0.030865
------------
L3216349                 2          0.86185 /_   -2.1 =    0.86128 +j -0.031177

ELEMENT = "Line.LN6388581-2"
M1047401                 1          0.78112 /_  -59.2 =    0.39965 +j  -0.67114
------------
L2748132                 1          0.78136 /_  120.7 =   -0.39898 +j   0.67181

ELEMENT = "Line.LN5774460-1"
L3122820                 1          0.77956 /_  -59.6 =    0.39406 +j  -0.67263
------------
L3141398                 1          0.77983 /_  120.3 =   -0.39332 +j   0.67337

ELEMENT = "Line.LN5624387-1"
M1108360                 3           2.1907 /_   66.6 =    0.87153 +j    2.0099
------------
L3048968                 3           2.1909 /_ -113.5 =   -0.87248 +j   -2.0097

ELEMENT = "Line.LN6137087-1"
L2801950                 3           11.562 /_   65.5 =     4.7881 +j    10.524
------------
M1069224                 3           11.562 /_ -114.5 =    -4.7887 +j   -10.524

ELEMENT = "Line.LN6077809-1"
L2766746                 3           14.557 /_   64.6 =     6.2526 +j    13.146
------------
M1027073                 3           14.558 /_ -115.4 =    -6.2545 +j   -13.146

ELEMENT = "Line.LN6440079-1"
L2895496                 3           3.7201 /_   67.5 =     1.4218 +j    3.4377
------------
M1142873                 3           3.7203 /_ -112.5 =    -1.4227 +j   -3.4376

ELEMENT = "Line.LN5804794-1"
M1069181                 1           11.488 /_  -55.3 =      6.544 +j   -9.4418
------------
L2973151                 1           11.488 /_  124.7 =    -6.5432 +j    9.4428

ELEMENT = "Line.LN5654484-1"
L3179682                 3           1.4399 /_   66.7 =    0.56977 +j    1.3224
------------
L2786274                 3           1.4401 /_ -113.3 =   -0.57026 +j   -1.3223

ELEMENT = "Line.LN5774465-1"
L3066816                 1           2.6046 /_  -59.2 =     1.3319 +j   -2.2383
------------
M1026667                 1           2.6051 /_  120.7 =    -1.3304 +j    2.2398

ELEMENT = "Line.LN5473349-1"
M1108529                 1           299.34 /_  -49.0 =     196.28 +j   -226.01
M1108529                 2           303.15 /_ -171.0 =     -299.4 +j   -47.499
M1108529                 3           210.64 /_   80.2 =     35.822 +j    207.58
------------
M1108532                 1           299.34 /_  131.0 =    -196.28 +j    226.01
M1108532                 2           303.15 /_    9.0 =      299.4 +j    47.498
M1108532                 3           210.64 /_  -99.8 =    -35.823 +j   -207.58

ELEMENT = "Line.LN6169253-1"
L2766723                 1           1.2977 /_  -59.6 =    0.65645 +j   -1.1194
------------
L3122822                 1            1.298 /_  120.3 =   -0.65576 +j    1.1201

ELEMENT = "Line.LN6350536-1"
L2673312                 1          0.77615 /_  -59.7 =     0.3912 +j  -0.67035
------------
L3235247                 1           0.7769 /_  120.1 =   -0.38914 +j   0.67242

ELEMENT = "Line.LN6048523-1"
M1166391                 3           20.845 /_   69.9 =     7.1507 +j     19.58
------------
L3254873                 3           20.846 /_ -110.1 =    -7.1526 +j    -19.58

ELEMENT = "Line.LN5594152-1"
L2861157                 3           23.145 /_   70.0 =     7.9225 +j    21.747
------------
P901951                  3           23.146 /_ -110.0 =    -7.9247 +j   -21.747

ELEMENT = "Line.LN5865248-1"
M1047346                 1           47.284 /_  -55.6 =     26.726 +j   -39.007
M1047346                 2           51.236 /_ -176.7 =    -51.153 +j   -2.9102
M1047346                 3           19.168 /_   65.2 =     8.0322 +j    17.403
------------
M1047345                 1           47.285 /_  124.4 =    -26.725 +j    39.008
M1047345                 2           51.236 /_    3.3 =     51.154 +j    2.9091
M1047345                 3           19.168 /_ -114.8 =    -8.0333 +j   -17.403

ELEMENT = "Line.LN6046143-1"
L2989596                 2          0.55825 /_  179.9 =   -0.55825 +j 0.00072483
------------
L2822873                 2          0.55865 /_   -0.2 =    0.55864 +j -0.0022152

ELEMENT = "Line.LN5803287-1"
M1108328                 3           2.9044 /_   66.7 =     1.1502 +j    2.6669
------------
L2875754                 3           2.9045 /_ -113.3 =    -1.1506 +j   -2.6669

ELEMENT = "Line.LN5589094-1"
L2786204                 3           31.752 /_   70.0 =     10.846 +j    29.842
------------
M1209819                 3           31.752 /_ -110.0 =    -10.847 +j   -29.842

ELEMENT = "Line.LN5954983-1"
P901972                  1           16.984 /_  -59.8 =     8.5472 +j   -14.676
------------
M1009726                 1           16.984 /_  120.2 =    -8.5461 +j    14.677

ELEMENT = "Line.LN5924696-2"
M1047702                 1          0.75861 /_  -59.2 =    0.38845 +j  -0.65161
------------
N1137001                 1          0.75881 /_  120.7 =   -0.38791 +j   0.65216

ELEMENT = "Line.LN6506311-4"
L2767340                 1      4.8616E-005 /_   51.2 =  3.0456E-005 +j 3.7894E-005
L2767340                 2      5.1964E-005 /_  -68.2 =  1.9287E-005 +j -4.8253E-005
L2767340                 3          0.85738 /_   67.0 =    0.33569 +j   0.78893
------------
M3037449                 1       2.968E-010 /_  -11.3 =  2.9104E-010 +j -5.8208E-011
M3037449                 2      4.1879E-010 /_  172.0 =  -4.1473E-010 +j 5.8208E-011
M3037449                 3          0.85739 /_ -113.1 =   -0.33574 +j  -0.78892

ELEMENT = "Line.LN5653493-1"
M1047457                 2           17.117 /_  178.0 =    -17.107 +j    0.5877
------------
L2710546                 2           17.117 /_   -2.0 =     17.107 +j  -0.58838

ELEMENT = "Line.LN5684836-1"
L2674027                 1           329.28 /_  -49.0 =     215.91 +j   -248.61
L2674027                 2           322.09 /_ -171.0 =    -318.11 +j   -50.474
L2674027                 3           223.82 /_   79.5 =     40.943 +j    220.04
------------
L2692633                 1           329.28 /_  131.0 =    -215.91 +j    248.61
L2692633                 2           322.09 /_    9.0 =     318.11 +j    50.471
L2692633                 3           223.82 /_ -100.5 =    -40.945 +j   -220.04

ELEMENT = "Line.LN5715016-3"
N1142108                 1           0.7776 /_  -53.8 =    0.45911 +j   -0.6276
------------
L2674051                 1          0.77793 /_  126.1 =    -0.4583 +j    0.6286

ELEMENT = "Line.LN6138614-1"
M1069135                 1           56.511 /_   -9.3 =     55.775 +j   -9.0907
M1069135                 2           57.135 /_ -131.5 =    -37.866 +j   -42.786
M1069135                 3           43.468 /_  138.4 =    -32.498 +j    28.868
------------
R18242                   1            56.51 /_  170.7 =    -55.773 +j    9.0922
R18242                   2           57.134 /_   48.5 =     37.867 +j    42.784
R18242                   3           43.466 /_  -41.6 =     32.496 +j   -28.868

ELEMENT = "Line.LN6077781-2"
M1047534                 1           261.28 /_  -59.4 =     132.88 +j   -224.97
M1047534                 2           239.28 /_  178.3 =    -239.18 +j    6.9527
M1047534                 3           194.52 /_   64.7 =     82.997 +j    175.93
------------
N1136663                 1           261.28 /_  120.6 =    -132.88 +j    224.97
N1136663                 2           239.28 /_   -1.7 =     239.18 +j   -6.9561
N1136663                 3           194.52 /_ -115.3 =    -83.001 +j   -175.93

ELEMENT = "Line.LN5675121-1"
M1108508                 3          0.56785 /_   66.1 =    0.22977 +j   0.51928
------------
L3097861                 3          0.56828 /_ -114.0 =   -0.23143 +j  -0.51902

ELEMENT = "Line.LN5773046-1"
M1069560                 2           34.661 /_  179.8 =    -34.661 +j   0.10979
------------
M1069567                 2           34.661 /_   -0.2 =     34.661 +j  -0.11116

ELEMENT = "Line.LN6380809-2"
L2973153                 1           23.103 /_  -59.0 =     11.891 +j   -19.808
L2973153                 2           71.512 /_  178.3 =     -71.48 +j    2.1261
L2973153                 3           8.0019 /_   65.0 =     3.3811 +j    7.2525
------------
N1136998                 1           23.103 /_  121.0 =    -11.891 +j    19.808
N1136998                 2           71.512 /_   -1.7 =      71.48 +j   -2.1264
N1136998                 3            8.002 /_ -115.0 =    -3.3814 +j   -7.2524

ELEMENT = "Line.LN6018326-1"
L2898515                 3           1.7076 /_   68.8 =    0.61799 +j    1.5918
------------
M1166387                 3           1.7078 /_ -111.3 =   -0.61904 +j   -1.5917

ELEMENT = "Line.LN5472356-1"
M1047442                 2          0.57012 /_  178.1 =   -0.56982 +j  0.018606
------------
L3235250                 2           0.5704 /_   -2.0 =    0.57006 +j -0.019677

ELEMENT = "Line.LN6139641-1"
M1142871                 1           398.09 /_  -50.1 =     255.14 +j   -305.58
M1142871                 2           382.04 /_ -171.8 =    -378.12 +j   -54.559
M1142871                 3           265.47 /_   77.5 =     57.395 +j    259.19
------------
M1142874                 1           398.09 /_  129.9 =    -255.13 +j    305.58
M1142874                 2           382.04 /_    8.2 =     378.12 +j    54.558
M1142874                 3           265.47 /_ -102.5 =    -57.396 +j   -259.19

ELEMENT = "Line.LN6018341-1"
L2955081                 1              101 /_  -29.4 =     87.956 +j    -49.65
L2955081                 2           114.97 /_ -153.8 =    -103.16 +j    -50.77
L2955081                 3           150.44 /_   82.6 =     19.346 +j    149.19
------------
M1108315                 1              101 /_  150.6 =    -87.955 +j    49.653
M1108315                 2           114.97 /_   26.2 =     103.16 +j    50.767
M1108315                 3           150.44 /_  -97.4 =    -19.349 +j   -149.19

ELEMENT = "Line.LN6017302-1"
L2973162                 1           2.0748 /_  -55.4 =     1.1772 +j   -1.7085
L2973162                 2           39.411 /_ -176.8 =    -39.351 +j   -2.1734
L2973162                 3          0.86107 /_   65.5 =    0.35769 +j   0.78326
------------
M1026333                 1           2.0752 /_  124.5 =    -1.1764 +j    1.7095
M1026333                 2           39.412 /_    3.2 =     39.352 +j    2.1721
M1026333                 3          0.86135 /_ -114.6 =   -0.35909 +j  -0.78292

ELEMENT = "Line.LN6199505-1"
M1009832                 2          0.56305 /_  177.9 =   -0.56268 +j  0.020403
------------
L2860479                 2          0.56321 /_   -2.1 =    0.56281 +j -0.021009

ELEMENT = "Line.LN5682327-1"
M1026854                 1           19.296 /_  -59.7 =     9.7416 +j   -16.656
------------
P901894                  1           19.296 /_  120.3 =    -9.7415 +j    16.656

ELEMENT = "Line.LN6290243-1"
M1026485                 2           2.8539 /_ -176.6 =    -2.8488 +j  -0.17124
------------
M1026492                 2           2.8542 /_    3.4 =     2.8492 +j   0.17014

ELEMENT = "Line.X8223_48332_SW"
D6413567-3_INT           1           78.727 /_  -24.2 =     71.815 +j   -32.258
D6413567-3_INT           2           83.899 /_ -147.7 =    -70.903 +j   -44.854
D6413567-3_INT           3           45.908 /_  130.3 =    -29.695 +j    35.011
------------
E182724                  1           78.727 /_  155.8 =    -71.815 +j    32.258
E182724                  2           83.899 /_   32.3 =     70.903 +j    44.854
E182724                  3           45.908 /_  -49.7 =     29.695 +j   -35.011

ELEMENT = "Line.LN6413567-3"
N1139541                 1           78.727 /_  -24.2 =     71.815 +j   -32.258
N1139541                 2             83.9 /_ -147.7 =    -70.903 +j   -44.855
N1139541                 3           45.908 /_  130.3 =    -29.695 +j    35.011
------------
D6413567-3_INT           1           78.727 /_  155.8 =    -71.815 +j    32.258
D6413567-3_INT           2           83.899 /_   32.3 =     70.903 +j    44.854
D6413567-3_INT           3           45.908 /_  -49.7 =     29.695 +j   -35.011

ELEMENT = "Line.LN5591731-3"
M4122658                 1           353.53 /_  -49.5 =     229.54 +j   -268.88
M4122658                 2            325.7 /_ -171.1 =    -321.74 +j    -50.65
M4122658                 3           226.33 /_   79.3 =     41.945 +j    222.41
------------
L2933135                 1           353.53 /_  130.5 =    -229.54 +j    268.88
L2933135                 2            325.7 /_    8.9 =     321.74 +j     50.65
L2933135                 3           226.33 /_ -100.7 =    -41.945 +j   -222.41

ELEMENT = "Line.LN5653470-1"
M1026702                 1           1.2923 /_  -59.5 =    0.65517 +j   -1.1139
M1026702                 2           1.3861 /_  178.9 =    -1.3858 +j   0.02753
M1026702                 3           1.4563 /_   64.9 =    0.61811 +j    1.3186
------------
L2729414                 1           1.2927 /_  120.4 =   -0.65425 +j    1.1149
L2729414                 2           1.3865 /_   -1.2 =     1.3862 +j   -0.0289
L2729414                 3           1.4565 /_ -115.2 =   -0.61945 +j   -1.3182

ELEMENT = "Line.LN6017316-1"
L2729430                 2            34.58 /_  178.0 =    -34.559 +j    1.2155
------------
L2766742                 2           34.581 /_   -2.0 =     34.559 +j   -1.2173

ELEMENT = "Line.LN5926299-1"
M1026972                 2           2.8604 /_  178.2 =     -2.859 +j   0.09076
------------
L2860483                 2           2.8607 /_   -1.8 =     2.8592 +j -0.091795

ELEMENT = "Line.LN5683831-1"
L2860490                 1           47.284 /_  -55.6 =     26.727 +j   -39.005
L2860490                 2           51.235 /_ -176.7 =    -51.152 +j   -2.9131
L2860490                 3           23.484 /_   65.2 =     9.8565 +j    21.315
------------
L3104134                 1           47.284 /_  124.4 =    -26.726 +j    39.006
L3104134                 2           51.236 /_    3.3 =     51.153 +j    2.9114
L3104134                 3           23.484 /_ -114.8 =    -9.8582 +j   -21.315

ELEMENT = "Line.LN6352700-1"
M1089144                 1           5.2931 /_  -54.4 =     3.0782 +j    -4.306
------------
P827522                  1           5.2931 /_  125.6 =    -3.0782 +j    4.3061

ELEMENT = "Line.LN6047570-1"
M1089118                 1          0.74692 /_  -55.0 =    0.42882 +j  -0.61156
------------
L3048208                 1          0.74713 /_  125.0 =    -0.4283 +j   0.61218

ELEMENT = "Line.LN5624342-1"
M1108505                 1           330.64 /_  -49.1 =     216.68 +j   -249.75
M1108505                 2           325.71 /_ -171.1 =    -321.75 +j   -50.632
M1108505                 3           223.82 /_   79.5 =     40.937 +j    220.04
------------
L2955047                 1           330.64 /_  130.9 =    -216.67 +j    249.75
L2955047                 2           325.71 /_    8.9 =     321.75 +j     50.63
L2955047                 3           223.82 /_ -100.5 =    -40.939 +j   -220.04

ELEMENT = "Line.LN6259992-1"
M1089148                 1           1.3255 /_  -54.5 =    0.76933 +j   -1.0794
------------
L2766721                 1           1.3257 /_  125.4 =   -0.76881 +j      1.08

ELEMENT = "Line.LN5841919-1"
M1026745                 2           0.8619 /_  178.0 =   -0.86138 +j  0.029849
------------
L3029183                 2          0.86231 /_   -2.1 =    0.86174 +j -0.031393

ELEMENT = "Line.LN6380811-1"
L2710512                 2           16.394 /_  178.2 =    -16.386 +j   0.52189
------------
M1047828                 2           16.395 /_   -1.8 =     16.386 +j  -0.52429

ELEMENT = "Line.LN5683832-1"
M1047342                 1           1.2798 /_  -55.7 =    0.72088 +j   -1.0574
------------
L3197645                 1           1.2801 /_  124.2 =   -0.72002 +j    1.0584

ELEMENT = "Line.LN6077778-1"
M1069192                 1           1.2605 /_  -55.3 =    0.71837 +j   -1.0358
------------
L3235253                 1           1.2609 /_  124.7 =   -0.71742 +j    1.0369

ELEMENT = "Line.LN5561442-2"
L3214071                 1           396.11 /_  -50.1 =     253.96 +j   -303.98
L3214071                 2           382.04 /_ -171.8 =    -378.13 +j   -54.541
L3214071                 3            260.4 /_   77.7 =     55.438 +j    254.43
------------
M1125952                 1           396.11 /_  129.9 =    -253.96 +j    303.98
M1125952                 2           382.04 /_    8.2 =     378.13 +j    54.539
M1125952                 3            260.4 /_ -102.3 =    -55.439 +j   -254.43

ELEMENT = "Line.LN6259983-1"
M1027101                 2           1.4364 /_  178.2 =    -1.4356 +j  0.045569
------------
L2860480                 2           1.4371 /_   -1.9 =     1.4363 +j -0.048352

ELEMENT = "Line.LN5865244-1"
L2710517                 1           16.036 /_  -59.5 =     8.1284 +j   -13.823
------------
M1026646                 1           16.036 /_  120.5 =    -8.1278 +j    13.824

ELEMENT = "Line.LN6350555-1"
M1069662                 2           0.8447 /_  179.8 =   -0.84469 +j 0.0035304
------------
L2935547                 2          0.84498 /_   -0.3 =    0.84497 +j -0.0045811

ELEMENT = "Line.LN5714039-1"
M1026931                 1           5.6267 /_  -59.7 =     2.8365 +j   -4.8594
------------
L3216336                 1           5.6269 /_  120.3 =    -2.8359 +j      4.86

ELEMENT = "Line.LN5889821-1"
L3142049                 1           346.76 /_  -49.4 =     225.71 +j   -263.25
L3142049                 2           325.71 /_ -171.1 =    -321.75 +j   -50.641
L3142049                 3           224.38 /_   79.4 =     41.156 +j    220.57
------------
M1108493                 1           346.76 /_  130.6 =    -225.71 +j    263.25
M1108493                 2           325.71 /_    8.9 =     321.75 +j    50.638
M1108493                 3           224.38 /_ -100.6 =    -41.159 +j   -220.57

ELEMENT = "Line.LN5804791-1"
M1069169                 1           63.375 /_  -15.4 =     61.103 +j   -16.817
M1069169                 2           83.899 /_ -147.7 =    -70.904 +j   -44.852
M1069169                 3           45.906 /_  130.3 =    -29.692 +j     35.01
------------
L3010556                 1           63.374 /_  164.6 =    -61.102 +j    16.819
L3010556                 2           83.899 /_   32.3 =     70.905 +j     44.85
L3010556                 3           45.904 /_  -49.7 =      29.69 +j    -35.01

ELEMENT = "Line.LN5653486-1"
L2991933                 3           4.3348 /_   64.7 =     1.8551 +j    3.9179
------------
L3122837                 3           4.3352 /_ -115.4 =    -1.8565 +j   -3.9176

ELEMENT = "Line.LN5926286-1"
L3216336                 1           4.3462 /_  -59.7 =     2.1916 +j   -3.7532
------------
L2691936                 1           4.3465 /_  120.3 =    -2.1908 +j     3.754

ELEMENT = "Line.LN6318859-1"
L2897772                 1       0.00097312 /_   49.2 =  0.00063554 +j 0.00073692
------------
L3101814                 1      8.1348E-012 /_  -63.4 =  3.638E-012 +j -7.276E-012

ELEMENT = "Line.LN5926316-1"
L2766732                 2           11.502 /_ -176.6 =    -11.482 +j  -0.67328
------------
M1026485                 2           11.502 /_    3.4 =     11.482 +j   0.67305

ELEMENT = "Line.LN5591703-1"
L2804269                 2           2.5336 /_  179.8 =    -2.5336 +j 0.0087514
------------
L2989564                 2           2.5338 /_   -0.2 =     2.5338 +j -0.0097892

ELEMENT = "Line.LN5531333-1"
M1126016                 1           5.5186 /_  -56.2 =     3.0671 +j   -4.5878
------------
L3120534                 1           5.5187 /_  123.8 =    -3.0667 +j    4.5882

ELEMENT = "Line.LN6047581-1"
M1026330                 2          0.86403 /_ -176.8 =   -0.86269 +j -0.048126
------------
L2766726                 2          0.86416 /_    3.2 =    0.86285 +j  0.047642

ELEMENT = "Line.LN6349077-1"
P901912                  2       0.00067586 /_  -76.3 =  0.00016001 +j -0.00065664
------------
L3195365                 2       1.627E-011 /_  -26.6 =  1.4552E-011 +j -7.276E-012

ELEMENT = "Line.LN6350574-1"
M1108381                 1           9.5202 /_  -55.2 =     5.4338 +j   -7.8172
M1108381                 2           9.5786 /_ -176.2 =    -9.5575 +j  -0.63575
M1108381                 3           8.6257 /_   67.0 =      3.366 +j    7.9419
------------
L3254237                 1           9.5208 /_  124.8 =    -5.4326 +j    7.8187
L3254237                 2           9.5793 /_    3.8 =     9.5583 +j   0.63379
L3254237                 3           8.6261 /_ -113.0 =     -3.368 +j   -7.9414

ELEMENT = "Line.LN6320343-1"
L2804262                 1           17.255 /_  -59.7 =     8.7114 +j   -14.895
------------
L2841639                 1           17.255 /_  120.3 =    -8.7105 +j    14.896

ELEMENT = "Line.LN81048100-5"
N1230123                 2           27.027 /_ -176.2 =    -26.968 +j   -1.7929
------------
L2708744                 2           27.028 /_    3.8 =     26.969 +j    1.7893

ELEMENT = "Line.LN6348946-1"
M1069519                 2           1.3936 /_  180.0 =    -1.3936 +j 0.0011233
------------
P901927                  2           1.3936 /_   -0.1 =     1.3936 +j -0.0012664

ELEMENT = "Line.LN5744351-1"
L2897790                 3           1.4207 /_   65.4 =    0.59151 +j    1.2917
------------
L2935566                 3           1.4211 /_ -114.7 =   -0.59279 +j   -1.2915

ELEMENT = "Line.LN5472342-1"
M1026931                 1          0.76637 /_  -59.7 =    0.38627 +j   -0.6619
------------
L3216337                 1          0.76663 /_  120.2 =   -0.38557 +j   0.66261

ELEMENT = "Line.LN5621849-1"
P901931                  3           3.6919 /_   65.4 =     1.5374 +j    3.3566
------------
M1069548                 3           3.6919 /_ -114.6 =    -1.5375 +j   -3.3566

ELEMENT = "Line.LN6379375-1"
M1010013                 1          0.78506 /_  -60.0 =    0.39213 +j  -0.68012
------------
L3120503                 1          0.78531 /_  119.9 =   -0.39145 +j   0.68079

ELEMENT = "Line.LN6028890-1"
M1089145                 1           1.9917 /_  -54.5 =     1.1565 +j   -1.6216
M1089145                 2           2.9235 /_ -174.9 =    -2.9118 +j  -0.26211
M1089145                 3           2.1986 /_   66.1 =    0.88924 +j    2.0108
------------
L3215385                 1            1.992 /_  125.5 =    -1.1559 +j    1.6223
L3215385                 2           2.9238 /_    5.1 =     2.9122 +j   0.26118
L3215385                 3           2.1988 /_ -113.9 =   -0.89022 +j   -2.0106

ELEMENT = "Line.LN6380822-1"
M1026854                 1           77.007 /_  -59.7 =     38.835 +j   -66.497
M1026854                 2           72.455 /_  178.1 =    -72.417 +j      2.34
M1026854                 3           43.837 /_   64.8 =     18.656 +j    39.669
------------
M1026852                 1           77.008 /_  120.3 =    -38.832 +j      66.5
M1026852                 2           72.457 /_   -1.9 =     72.419 +j   -2.3439
M1026852                 3           43.837 /_ -115.2 =     -18.66 +j   -39.668

ELEMENT = "Line.LN5835131-1"
L2935549                 1           21.966 /_  -59.0 =     11.298 +j   -18.838
L2935549                 2           52.677 /_  178.1 =     -52.65 +j    1.7039
L2935549                 3           39.134 /_   64.2 =     17.033 +j    35.232
------------
M1069420                 1           21.967 /_  120.9 =    -11.296 +j     18.84
M1069420                 2           52.678 /_   -1.9 =     52.651 +j   -1.7067
M1069420                 3           39.134 /_ -115.8 =    -17.036 +j   -35.231

ELEMENT = "Line.LN5803262-7"
L3157708                 3          0.57334 /_   65.0 =    0.24275 +j   0.51941
------------
N1137991                 3           0.5734 /_ -115.1 =   -0.24299 +j  -0.51937

ELEMENT = "Line.LN81048089-1"
M1108413                 1           15.713 /_  -55.2 =     8.9682 +j   -12.903
------------
M1108460                 1           15.716 /_  124.8 =    -8.9619 +j     12.91

ELEMENT = "Line.LN6201699-1"
P827532                  1           2.0509 /_  -55.6 =     1.1589 +j   -1.6921
------------
M1047326                 1           2.0509 /_  124.4 =    -1.1588 +j    1.6922

ELEMENT = "Line.LN5746548-1"
E182732                  1           53.905 /_  -59.5 =      27.38 +j   -46.434
E182732                  2           14.874 /_  179.1 =    -14.873 +j    0.2317
E182732                  3           27.684 /_   65.0 =     11.691 +j    25.095
------------
M1026760                 1           53.905 /_  120.5 =    -27.379 +j    46.434
M1026760                 2           14.874 /_   -0.9 =     14.873 +j  -0.23194
M1026760                 3           27.684 /_ -115.0 =    -11.691 +j   -25.095

ELEMENT = "Line.LN5835174-1"
L3048205                 3           35.788 /_   66.5 =     14.244 +j    32.832
------------
M1108361                 3           35.789 /_ -113.5 =    -14.247 +j   -32.831

ELEMENT = "Line.LN6505947-4"
M3036169                 1           17.594 /_  -59.6 =      8.916 +j   -15.168
------------
L2673317                 1           17.594 /_  120.4 =     -8.916 +j    15.168

ELEMENT = "Line.LN5683833-1"
L3178981                 2           29.456 /_ -176.5 =    -29.401 +j   -1.8109
------------
M1047368                 2           29.457 /_    3.5 =     29.402 +j    1.8073

ELEMENT = "Line.LN5561439-3"
M1069519                 1            7.207 /_  -57.8 =     3.8363 +j   -6.1011
M1069519                 2           57.219 /_  179.9 =    -57.219 +j   0.12117
M1069519                 3           5.1087 /_   65.6 =     2.1065 +j    4.6542
------------
N1136354                 1           7.2084 /_  122.1 =    -3.8331 +j    6.1047
N1136354                 2           57.221 /_   -0.1 =      57.22 +j  -0.12609
N1136354                 3           5.1096 /_ -114.4 =    -2.1114 +j   -4.6529

ELEMENT = "Line.LN6109190-1"
L2879794                 1           4.5549 /_  -53.6 =     2.7049 +j   -3.6648
------------
M1142811                 1           4.5551 /_  126.4 =    -2.7046 +j    3.6653

ELEMENT = "Line.LN6258435-2"
M1047702                 1           2.5348 /_  -59.2 =     1.2969 +j   -2.1779
------------
N1137002                 1           2.5349 /_  120.8 =    -1.2967 +j    2.1782

ELEMENT = "Line.LN5804819-1"
M1069565                 2          0.83872 /_  180.0 =   -0.83872 +j 0.00011732
------------
L2785536                 2          0.83955 /_   -0.2 =    0.83954 +j -0.003229

ELEMENT = "Line.LN5593215-1"
L3104114                 2            30.92 /_  178.0 =      -30.9 +j    1.0888
------------
M1009824                 2            30.92 /_   -2.0 =     30.901 +j   -1.0897

ELEMENT = "Line.LN5833717-1"
L2745848                 1           28.584 /_  -59.0 =     14.707 +j    -24.51
L2745848                 2           68.424 /_  178.2 =    -68.392 +j     2.109
L2745848                 3           47.845 /_   64.2 =      20.79 +j    43.091
------------
L2673308                 1           28.585 /_  121.0 =    -14.706 +j    24.512
L2673308                 2           68.425 /_   -1.8 =     68.392 +j   -2.1106
L2673308                 3           47.845 /_ -115.8 =    -20.792 +j   -43.091

ELEMENT = "Line.LN6199557-1"
L2673308                 1           28.585 /_  -59.0 =     14.706 +j   -24.512
L2673308                 2           66.318 /_  178.2 =    -66.286 +j    2.0556
L2673308                 3           47.845 /_   64.2 =     20.792 +j    43.091
------------
L2991939                 1           28.586 /_  121.0 =    -14.704 +j    24.514
L2991939                 2           66.319 /_   -1.8 =     66.287 +j   -2.0589
L2991939                 3           47.846 /_ -115.8 =    -20.795 +j    -43.09

ELEMENT = "Line.LN5744332-1"
L2916606                 3          0.87028 /_   66.6 =    0.34581 +j   0.79863
------------
L2822864                 3          0.87056 /_ -113.5 =   -0.34688 +j  -0.79847

ELEMENT = "Line.LN5558790-1"
M1142851                 1           402.66 /_  -50.2 =     257.87 +j   -309.26
M1142851                 2           382.03 /_ -171.8 =    -378.11 +j   -54.572
M1142851                 3           269.85 /_   77.4 =     59.069 +j     263.3
------------
196-31070                1           402.66 /_  129.8 =    -257.87 +j    309.26
196-31070                2           382.03 /_    8.2 =     378.11 +j    54.572
196-31070                3           269.85 /_ -102.6 =    -59.069 +j    -263.3

ELEMENT = "Line.LN6078692-1"
M1209822                 3           30.328 /_   70.0 =     10.372 +j    28.499
------------
M1209823                 3           30.328 /_ -110.0 =    -10.373 +j   -28.499

ELEMENT = "Line.LN5956482-1"
M1069550                 2           49.109 /_  179.8 =    -49.109 +j   0.13523
------------
M1069551                 2           49.109 /_   -0.2 =     49.109 +j   -0.1353

ELEMENT = "Line.LN5593225-1"
L2860483                 2           1.4302 /_  178.2 =    -1.4295 +j  0.045256
------------
L3141397                 2           1.4305 /_   -1.9 =     1.4298 +j -0.046553

ELEMENT = "Line.LN6900591-26"
L3649299                 1           10.316 /_  -59.6 =      5.221 +j   -8.8974
------------
M3772794                 1           10.316 /_  120.4 =     -5.221 +j    8.8974

ELEMENT = "Line.LN5952393-1"
P895106                  2           5.8943 /_ -175.8 =    -5.8781 +j  -0.43632
------------
L3048887                 2           5.8944 /_    4.2 =     5.8783 +j   0.43568

ELEMENT = "Line.LN6350531-1"
M1047824                 2           5.7352 /_  178.4 =    -5.7328 +j   0.16512
------------
M1047834                 2            5.737 /_   -1.7 =     5.7344 +j    -0.172

ELEMENT = "Line.LN5965099-10"
M1069350                 1           5.1017 /_  -58.7 =     2.6541 +j   -4.3569
M1069350                 2        0.0044442 /_  -74.0 =  0.0012216 +j -0.004273
M1069350                 3            36.81 /_   64.2 =     16.043 +j     33.13
------------
N1144668                 1           5.1019 /_  121.3 =    -2.6536 +j    4.3575
N1144668                 2        0.0036352 /_  106.0 =  -0.00099924 +j 0.0034952
N1144668                 3           36.811 /_ -115.8 =    -16.044 +j    -33.13

ELEMENT = "Line.LN6047568-1"
L2879072                 2           34.625 /_  178.1 =    -34.605 +j    1.1745
------------
M1047441                 2           34.626 /_   -2.0 =     34.606 +j   -1.1783

ELEMENT = "Line.LN5926292-1"
M1108274                 2           1.3744 /_ -175.3 =    -1.3698 +j  -0.11218
------------
M1108269                 2           1.3747 /_    4.6 =     1.3702 +j   0.11113

ELEMENT = "Line.LN6380806-1"
L3235244                 1           3.3223 /_  -59.2 =     1.6995 +j   -2.8547
------------
M1069398                 1           3.3225 /_  120.7 =    -1.6987 +j    2.8555

ELEMENT = "Line.LN6341781-3"
N1147862                 1           1.2892 /_  -59.8 =    0.64869 +j   -1.1141
------------
L2685805                 1           1.2896 /_  120.1 =   -0.64758 +j    1.1153

ELEMENT = "Line.LN8979367-1"
M1069247                 1           1.9103 /_  -58.2 =     1.0069 +j   -1.6234
------------
M1069248                 1           1.9124 /_  121.6 =    -1.0008 +j    1.6296

ELEMENT = "Line.LN6018340-1"
L2786273                 2           2.6141 /_ -175.3 =    -2.6053 +j  -0.21419
------------
M1108278                 2           2.6146 /_    4.7 =     2.6059 +j   0.21239

ELEMENT = "Line.LN6380847-1"
L3254238                 1           26.103 /_  -55.6 =     14.763 +j   -21.527
L3254238                 2           45.422 /_ -176.8 =    -45.351 +j   -2.5439
L3254238                 3           17.155 /_   65.2 =      7.202 +j     15.57
------------
M1047303                 1           26.103 /_  124.4 =    -14.761 +j    21.529
M1047303                 2           45.423 /_    3.2 =     45.352 +j    2.5414
M1047303                 3           17.156 /_ -114.8 =    -7.2046 +j    -15.57

ELEMENT = "Line.LN8961797-1"
M1047633                 3           2.8721 /_   65.1 =     1.2077 +j    2.6058
------------
L2897554                 3           2.8754 /_ -115.1 =    -1.2206 +j   -2.6035

ELEMENT = "Line.LN6077797-1"
M1069627                 2           5.6533 /_  179.8 =    -5.6532 +j  0.022298
------------
L2897791                 2           5.6539 /_   -0.2 =     5.6539 +j -0.024614

ELEMENT = "Line.LN6077773-1"
M1089097                 2           6.1849 /_ -175.3 =    -6.1639 +j  -0.50948
------------
M1108270                 2           6.1853 /_    4.7 =     6.1644 +j   0.50809

ELEMENT = "Line.LN5837496-4"
N1142101                 1           1.3666 /_  -56.0 =    0.76482 +j   -1.1326
------------
L2936214                 1           1.3668 /_  124.0 =   -0.76441 +j    1.1331

ELEMENT = "Line.LN5623392-1"
L3066810                 3           4.3587 /_   64.3 =     1.8934 +j    3.9259
------------
L2897769                 3           4.3593 /_ -115.8 =    -1.8956 +j   -3.9255

ELEMENT = "Line.LN5624380-1"
M1209758                 2           3.0392 /_ -171.1 =    -3.0025 +j  -0.47064
------------
M1209753                 2           3.0397 /_    8.9 =     3.0034 +j   0.46863

ELEMENT = "Line.LN6422809-2"
M1047528                 1           138.08 /_  -59.6 =     69.972 +j   -119.03
M1047528                 2           148.23 /_  178.3 =    -148.16 +j    4.5218
M1047528                 3           89.622 /_   64.9 =     37.979 +j    81.177
------------
L2858166                 1           138.08 /_  120.4 =    -69.972 +j    119.03
L2858166                 2           148.23 /_   -1.7 =     148.16 +j   -4.5219
L2858166                 3           89.622 /_ -115.1 =    -37.979 +j   -81.177

ELEMENT = "Line.LN5799561-1"
M1142843                 1           118.09 /_  -33.1 =     98.947 +j   -64.455
M1142843                 2           135.55 /_ -156.9 =     -124.7 +j   -53.153
M1142843                 3              166 /_   81.2 =     25.455 +j    164.04
------------
L3081380                 1           118.09 /_  146.9 =    -98.945 +j    64.458
L3081380                 2           135.55 /_   23.1 =      124.7 +j     53.15
L3081380                 3              166 /_  -98.8 =    -25.459 +j   -164.04

ELEMENT = "Line.LN6229818-1"
L2804272                 2          0.83876 /_  179.9 =   -0.83875 +j 0.0017572
------------
L2841641                 2          0.83912 /_   -0.2 =    0.83912 +j -0.0031308

ELEMENT = "Line.LN5593230-1"
M1069393                 2           39.462 /_  178.1 =    -39.439 +j    1.3289
------------
M1069408                 2           39.462 /_   -1.9 =      39.44 +j     -1.33

ELEMENT = "Line.LN5563901-3"
N1142104                 1           346.76 /_  -49.4 =      225.7 +j   -263.25
N1142104                 2           325.71 /_ -171.1 =    -321.75 +j   -50.634
N1142104                 3           223.82 /_   79.5 =     40.935 +j    220.04
------------
M1108500                 1           346.76 /_  130.6 =     -225.7 +j    263.25
M1108500                 2           325.71 /_    8.9 =     321.75 +j    50.633
M1108500                 3           223.82 /_ -100.5 =    -40.936 +j   -220.04

ELEMENT = "Line.LN6320339-1"
L3216348                 1           4.8362 /_  -59.6 =     2.4498 +j   -4.1698
------------
L2841627                 1            4.837 /_  120.4 =    -2.4476 +j    4.1721

ELEMENT = "Line.LN5986927-1"
M1026925                 1           1.2796 /_  -59.8 =    0.64422 +j   -1.1056
------------
L2916599                 1           1.2797 /_  120.2 =   -0.64403 +j    1.1058

ELEMENT = "Line.LN6047567-1"
M1047447                 2           1.4337 /_  178.1 =    -1.4328 +j  0.048677
------------
L2954349                 2           1.4339 /_   -2.0 =      1.433 +j -0.049563

ELEMENT = "Line.LN5714047-1"
L3235246                 2            17.83 /_  178.2 =    -17.821 +j   0.56872
------------
L2710512                 2            17.83 /_   -1.8 =     17.821 +j     -0.57

ELEMENT = "Line.LN5563934-1"
M1125911                 2           7.0971 /_ -174.0 =    -7.0581 +j  -0.74276
------------
L2711224                 2           7.0975 /_    6.0 =     7.0588 +j   0.74107

ELEMENT = "Line.LN6169249-3"
N1147863                 3           1.4352 /_   64.6 =    0.61503 +j    1.2967
------------
L3122817                 3           1.4352 /_ -115.4 =   -0.61511 +j   -1.2967

ELEMENT = "Line.LN6230800-1"
M1186061                 2           1.3842 /_ -171.4 =    -1.3686 +j  -0.20708
------------
L2861223                 2           1.3844 /_    8.6 =     1.3689 +j   0.20649

ELEMENT = "Line.LN5985339-2"
M1069130                 1           2.0374 /_  -55.6 =     1.1512 +j    -1.681
------------
L3085396                 1           2.0378 /_  124.4 =    -1.1503 +j    1.6821

ELEMENT = "Line.LN5898059-3"
E182730                  1           1.7957 /_  -59.4 =    0.91383 +j   -1.5457
------------
N1142109                 1           1.7958 /_  120.6 =   -0.91354 +j     1.546

ELEMENT = "Line.LN5956457-2"
M1069417                 1           20.693 /_  -59.1 =     10.637 +j    -17.75
M1069417                 2           50.553 /_  178.1 =    -50.526 +j    1.6523
M1069417                 3           39.136 /_   64.2 =     17.047 +j    35.228
------------
N1138597                 1           20.694 /_  120.9 =    -10.637 +j    17.751
N1138597                 2           50.554 /_   -1.9 =     50.527 +j   -1.6532
N1138597                 3           39.136 /_ -115.8 =    -17.048 +j   -35.228

ELEMENT = "Line.LN5865229-1"
M1026987                 2           14.328 /_  178.3 =    -14.322 +j    0.4268
------------
M1026990                 2           14.328 /_   -1.7 =     14.322 +j  -0.42774

ELEMENT = "Line.LN6018331-1"
M1142832                 1           117.36 /_  -33.0 =     98.477 +j   -63.839
M1142832                 2           135.55 /_ -156.9 =     -124.7 +j   -53.143
M1142832                 3           158.91 /_   81.8 =     22.681 +j    157.28
------------
L3160865                 1           117.36 /_  147.0 =    -98.476 +j    63.841
L3160865                 2           135.55 /_   23.1 =      124.7 +j    53.141
L3160865                 3           158.91 /_  -98.2 =    -22.683 +j   -157.28

ELEMENT = "Line.LN6199535-1"
L2673323                 3           1.4403 /_   64.7 =    0.61521 +j    1.3023
------------
M1009809                 3           1.4407 /_ -115.3 =   -0.61646 +j   -1.3021

ELEMENT = "Line.LN5502538-1"
L2822869                 1           59.667 /_  -59.4 =     30.328 +j   -51.385
L2822869                 2           14.868 /_  179.2 =    -14.867 +j   0.21112
L2822869                 3            33.17 /_   65.0 =     14.009 +j    30.066
------------
M1026808                 1           59.668 /_  120.5 =    -30.327 +j    51.387
M1026808                 2           14.869 /_   -0.8 =     14.867 +j  -0.21362
...